!- Windows Line endings 

Version,
    23.1;                     !- Version Identifier

SimulationControl,
    Yes,                      !- Do Zone Sizing Calculation
    Yes,                      !- Do System Sizing Calculation
    No,                       !- Do Plant Sizing Calculation
    No,                       !- Run Simulation for Sizing Periods
    Yes,                      !- Run Simulation for Weather File Run Periods
    No,                       !- Do HVAC Sizing Simulation for Sizing Periods
    1;                        !- Maximum Number of HVAC Sizing Simulation Passes

Building,
    Building,                 !- Name
    0,                        !- North Axis
    Suburbs,                  !- Terrain
    0.04,                     !- Loads Convergence Tolerance Value
    0.4,                      !- Temperature Convergence Tolerance Value
    FullInteriorAndExterior,    !- Solar Distribution
    25,                       !- Maximum Number of Warmup Days
    ;                         !- Minimum Number of Warmup Days

SurfaceConvectionAlgorithm:Inside,
    TARP;                     !- Algorithm

SurfaceConvectionAlgorithm:Outside,
    DOE-2;                    !- Algorithm

HeatBalanceAlgorithm,
    ConductionTransferFunction,    !- Algorithm
    200,                      !- Surface Temperature Upper Limit
    0.1,                      !- Minimum Surface Convection Heat Transfer Coefficient Value
    1000;                     !- Maximum Surface Convection Heat Transfer Coefficient Value

Timestep,
    6;                        !- Number of Timesteps per Hour

ConvergenceLimits,
    1,                        !- Minimum System Timestep
    50,                       !- Maximum HVAC Iterations
    2,                        !- Minimum Plant Iterations
    8;                        !- Maximum Plant Iterations

Site:Location,
    Beijing,                  !- Name
    39.8,                     !- Latitude
    116.47,                   !- Longitude
    8,                        !- Time Zone
    31.3;                     !- Elevation

SizingPeriod:DesignDay,
    CShanghai Ann Clg .4% Condns DB,    !- Name
    7,                        !- Month
    21,                       !- Day of Month
    SummerDesignDay,          !- Day Type
    34.9,                     !- Maximum DryBulb Temperature
    5.5,                      !- Daily DryBulb Temperature Range
    ,                         !- DryBulb Temperature Range Modifier Type
    ,                         !- DryBulb Temperature Range Modifier Day Schedule Name
    Wetbulb,                  !- Humidity Condition Type
    27.1,                     !- Wetbulb or DewPoint at Maximum DryBulb
    ,                         !- Humidity Condition Day Schedule Name
    ,                         !- Humidity Ratio at Maximum DryBulb
    ,                         !- Enthalpy at Maximum DryBulb
    ,                         !- Daily WetBulb Temperature Range
    101259,                   !- Barometric Pressure
    3.6,                      !- Wind Speed
    250,                      !- Wind Direction
    No,                       !- Rain Indicator
    No,                       !- Snow Indicator
    No,                       !- Daylight Saving Time Indicator
    ASHRAEClearSky,           !- Solar Model Indicator
    ,                         !- Beam Solar Day Schedule Name
    ,                         !- Diffuse Solar Day Schedule Name
    ,                         !- ASHRAE Clear Sky Optical Depth for Beam Irradiance taub
    ,                         !- ASHRAE Clear Sky Optical Depth for Diffuse Irradiance taud
    1;                        !- Sky Clearness

SizingPeriod:DesignDay,
    Shanghai Ann Htg 99.6% Condns DB,    !- Name
    1,                        !- Month
    21,                       !- Day of Month
    WinterDesignDay,          !- Day Type
    -1.9,                     !- Maximum DryBulb Temperature
    0,                        !- Daily DryBulb Temperature Range
    ,                         !- DryBulb Temperature Range Modifier Type
    ,                         !- DryBulb Temperature Range Modifier Day Schedule Name
    Wetbulb,                  !- Humidity Condition Type
    -1.9,                     !- Wetbulb or DewPoint at Maximum DryBulb
    ,                         !- Humidity Condition Day Schedule Name
    ,                         !- Humidity Ratio at Maximum DryBulb
    ,                         !- Enthalpy at Maximum DryBulb
    ,                         !- Daily WetBulb Temperature Range
    101259,                   !- Barometric Pressure
    3.1,                      !- Wind Speed
    270,                      !- Wind Direction
    No,                       !- Rain Indicator
    No,                       !- Snow Indicator
    No,                       !- Daylight Saving Time Indicator
    ASHRAEClearSky,           !- Solar Model Indicator
    ,                         !- Beam Solar Day Schedule Name
    ,                         !- Diffuse Solar Day Schedule Name
    ,                         !- ASHRAE Clear Sky Optical Depth for Beam Irradiance taub
    ,                         !- ASHRAE Clear Sky Optical Depth for Diffuse Irradiance taud
    0;                        !- Sky Clearness

RunPeriod,
    Archsim,                  !- Name
    1,                        !- Begin Month
    1,                        !- Begin Day of Month
    2023,                     !- Begin Year
    12,                       !- End Month
    31,                       !- End Day of Month
    2023,                     !- End Year
    Sunday,                   !- Day of Week for Start Day
    Yes,                      !- Use Weather File Holidays and Special Days
    Yes,                      !- Use Weather File Daylight Saving Period
    Yes,                      !- Apply Weekend Holiday Rule
    Yes,                      !- Use Weather File Rain Indicators
    Yes;                      !- Use Weather File Snow Indicators

Site:GroundTemperature:BuildingSurface,
    20.4,                     !- January Ground Temperature
    20.4,                     !- February Ground Temperature
    20.4,                     !- March Ground Temperature
    20.4,                     !- April Ground Temperature
    21.5,                     !- May Ground Temperature
    22.7,                     !- June Ground Temperature
    22.9,                     !- July Ground Temperature
    23,                       !- August Ground Temperature
    23,                       !- September Ground Temperature
    21.9,                     !- October Ground Temperature
    20.7,                     !- November Ground Temperature
    20.5;                     !- December Ground Temperature

Site:GroundReflectance,
    0.2,                      !- January Ground Reflectance
    0.2,                      !- February Ground Reflectance
    0.2,                      !- March Ground Reflectance
    0.2,                      !- April Ground Reflectance
    0.2,                      !- May Ground Reflectance
    0.2,                      !- June Ground Reflectance
    0.2,                      !- July Ground Reflectance
    0.2,                      !- August Ground Reflectance
    0.2,                      !- September Ground Reflectance
    0.2,                      !- October Ground Reflectance
    0.2,                      !- November Ground Reflectance
    0.2;                      !- December Ground Reflectance

ScheduleTypeLimits,
    Any Number;               !- Name

ScheduleTypeLimits,
    On/Off,                   !- Name
    0,                        !- Lower Limit Value
    1,                        !- Upper Limit Value
    Discrete;                 !- Numeric Type

ScheduleTypeLimits,
    Temperature,              !- Name
    -60,                      !- Lower Limit Value
    200,                      !- Upper Limit Value
    Continuous;               !- Numeric Type

ScheduleTypeLimits,
    Fraction,                 !- Name
    0,                        !- Lower Limit Value
    1,                        !- Upper Limit Value
    Continuous;               !- Numeric Type

ScheduleTypeLimits,
    Control Type,             !- Name
    0,                        !- Lower Limit Value
    4,                        !- Upper Limit Value
    Discrete;                 !- Numeric Type

Schedule:Day:Hourly,
    N_Lights,                 !- Name
    Fraction,                 !- Schedule Type Limits Name
    0,                        !- Hour 1
    0,                        !- Hour 2
    0,                        !- Hour 3
    0,                        !- Hour 4
    0,                        !- Hour 5
    0,                        !- Hour 6
    0,                        !- Hour 7
    0,                        !- Hour 8
    1,                        !- Hour 9
    1,                        !- Hour 10
    1,                        !- Hour 11
    1,                        !- Hour 12
    1,                        !- Hour 13
    1,                        !- Hour 14
    1,                        !- Hour 15
    1,                        !- Hour 16
    1,                        !- Hour 17
    1,                        !- Hour 18
    1,                        !- Hour 19
    1,                        !- Hour 20
    1,                        !- Hour 21
    1,                        !- Hour 22
    1,                        !- Hour 23
    1;                        !- Hour 24

Schedule:Day:Hourly,
    N_Ventilation,            !- Name
    Fraction,                 !- Schedule Type Limits Name
    1,                        !- Hour 1
    1,                        !- Hour 2
    1,                        !- Hour 3
    1,                        !- Hour 4
    1,                        !- Hour 5
    1,                        !- Hour 6
    1,                        !- Hour 7
    1,                        !- Hour 8
    1,                        !- Hour 9
    1,                        !- Hour 10
    1,                        !- Hour 11
    1,                        !- Hour 12
    1,                        !- Hour 13
    1,                        !- Hour 14
    1,                        !- Hour 15
    1,                        !- Hour 16
    1,                        !- Hour 17
    1,                        !- Hour 18
    1,                        !- Hour 19
    1,                        !- Hour 20
    1,                        !- Hour 21
    1,                        !- Hour 22
    1,                        !- Hour 23
    1;                        !- Hour 24

Schedule:Day:Hourly,
    N_WaterPump,              !- Name
    Fraction,                 !- Schedule Type Limits Name
    1,                        !- Hour 1
    1,                        !- Hour 2
    1,                        !- Hour 3
    1,                        !- Hour 4
    1,                        !- Hour 5
    1,                        !- Hour 6
    1,                        !- Hour 7
    1,                        !- Hour 8
    1,                        !- Hour 9
    1,                        !- Hour 10
    1,                        !- Hour 11
    1,                        !- Hour 12
    1,                        !- Hour 13
    1,                        !- Hour 14
    1,                        !- Hour 15
    1,                        !- Hour 16
    1,                        !- Hour 17
    1,                        !- Hour 18
    1,                        !- Hour 19
    1,                        !- Hour 20
    1,                        !- Hour 21
    1,                        !- Hour 22
    1,                        !- Hour 23
    1;                        !- Hour 24

Schedule:Day:Hourly,
    N_ControlEquipment,       !- Name
    Fraction,                 !- Schedule Type Limits Name
    1,                        !- Hour 1
    1,                        !- Hour 2
    1,                        !- Hour 3
    1,                        !- Hour 4
    1,                        !- Hour 5
    1,                        !- Hour 6
    1,                        !- Hour 7
    1,                        !- Hour 8
    1,                        !- Hour 9
    1,                        !- Hour 10
    1,                        !- Hour 11
    1,                        !- Hour 12
    1,                        !- Hour 13
    1,                        !- Hour 14
    1,                        !- Hour 15
    1,                        !- Hour 16
    1,                        !- Hour 17
    1,                        !- Hour 18
    1,                        !- Hour 19
    1,                        !- Hour 20
    1,                        !- Hour 21
    1,                        !- Hour 22
    1,                        !- Hour 23
    1;                        !- Hour 24

Schedule:Day:Hourly,
    N_LightFan,               !- Name
    Fraction,                 !- Schedule Type Limits Name
    1,                        !- Hour 1
    1,                        !- Hour 2
    1,                        !- Hour 3
    1,                        !- Hour 4
    1,                        !- Hour 5
    1,                        !- Hour 6
    1,                        !- Hour 7
    1,                        !- Hour 8
    1,                        !- Hour 9
    1,                        !- Hour 10
    1,                        !- Hour 11
    1,                        !- Hour 12
    1,                        !- Hour 13
    1,                        !- Hour 14
    1,                        !- Hour 15
    1,                        !- Hour 16
    1,                        !- Hour 17
    1,                        !- Hour 18
    1,                        !- Hour 19
    1,                        !- Hour 20
    1,                        !- Hour 21
    1,                        !- Hour 22
    1,                        !- Hour 23
    1;                        !- Hour 24

Schedule:Day:Hourly,
    N_FFU,                    !- Name
    Fraction,                 !- Schedule Type Limits Name
    1,                        !- Hour 1
    1,                        !- Hour 2
    1,                        !- Hour 3
    1,                        !- Hour 4
    1,                        !- Hour 5
    1,                        !- Hour 6
    1,                        !- Hour 7
    1,                        !- Hour 8
    1,                        !- Hour 9
    1,                        !- Hour 10
    1,                        !- Hour 11
    1,                        !- Hour 12
    1,                        !- Hour 13
    1,                        !- Hour 14
    1,                        !- Hour 15
    1,                        !- Hour 16
    1,                        !- Hour 17
    1,                        !- Hour 18
    1,                        !- Hour 19
    1,                        !- Hour 20
    1,                        !- Hour 21
    1,                        !- Hour 22
    1,                        !- Hour 23
    1;                        !- Hour 24

Schedule:Day:Hourly,
    N_FreshAirMachine,        !- Name
    Fraction,                 !- Schedule Type Limits Name
    1,                        !- Hour 1
    1,                        !- Hour 2
    1,                        !- Hour 3
    1,                        !- Hour 4
    1,                        !- Hour 5
    1,                        !- Hour 6
    1,                        !- Hour 7
    1,                        !- Hour 8
    1,                        !- Hour 9
    1,                        !- Hour 10
    1,                        !- Hour 11
    1,                        !- Hour 12
    1,                        !- Hour 13
    1,                        !- Hour 14
    1,                        !- Hour 15
    1,                        !- Hour 16
    1,                        !- Hour 17
    1,                        !- Hour 18
    1,                        !- Hour 19
    1,                        !- Hour 20
    1,                        !- Hour 21
    1,                        !- Hour 22
    1,                        !- Hour 23
    1;                        !- Hour 24

Schedule:Day:Hourly,
    Always Off,               !- Name
    Fraction,                 !- Schedule Type Limits Name
    0,                        !- Hour 1
    0,                        !- Hour 2
    0,                        !- Hour 3
    0,                        !- Hour 4
    0,                        !- Hour 5
    0,                        !- Hour 6
    0,                        !- Hour 7
    0,                        !- Hour 8
    0,                        !- Hour 9
    0,                        !- Hour 10
    0,                        !- Hour 11
    0,                        !- Hour 12
    0,                        !- Hour 13
    0,                        !- Hour 14
    0,                        !- Hour 15
    0,                        !- Hour 16
    0,                        !- Hour 17
    0,                        !- Hour 18
    0,                        !- Hour 19
    0,                        !- Hour 20
    0,                        !- Hour 21
    0,                        !- Hour 22
    0,                        !- Hour 23
    0;                        !- Hour 24

Schedule:Week:Daily,
    W_Lights,                 !- Name
    N_Lights,                 !- Sunday ScheduleDay Name
    N_Lights,                 !- Monday ScheduleDay Name
    N_Lights,                 !- Tuesday ScheduleDay Name
    N_Lights,                 !- Wednesday ScheduleDay Name
    N_Lights,                 !- Thursday ScheduleDay Name
    N_Lights,                 !- Friday ScheduleDay Name
    N_Lights,                 !- Saturday ScheduleDay Name
    N_Lights,                 !- Holiday ScheduleDay Name
    N_Lights,                 !- SummerDesignDay ScheduleDay Name
    N_Lights,                 !- WinterDesignDay ScheduleDay Name
    N_Lights,                 !- CustomDay1 ScheduleDay Name
    N_Lights;                 !- CustomDay2 ScheduleDay Name

Schedule:Week:Daily,
    W_Ventilation,            !- Name
    N_Ventilation,            !- Sunday ScheduleDay Name
    N_Ventilation,            !- Monday ScheduleDay Name
    N_Ventilation,            !- Tuesday ScheduleDay Name
    N_Ventilation,            !- Wednesday ScheduleDay Name
    N_Ventilation,            !- Thursday ScheduleDay Name
    N_Ventilation,            !- Friday ScheduleDay Name
    N_Ventilation,            !- Saturday ScheduleDay Name
    N_Ventilation,            !- Holiday ScheduleDay Name
    N_Ventilation,            !- SummerDesignDay ScheduleDay Name
    N_Ventilation,            !- WinterDesignDay ScheduleDay Name
    N_Ventilation,            !- CustomDay1 ScheduleDay Name
    N_Ventilation;            !- CustomDay2 ScheduleDay Name

Schedule:Week:Daily,
    W_WaterPump,              !- Name
    N_WaterPump,              !- Sunday ScheduleDay Name
    N_WaterPump,              !- Monday ScheduleDay Name
    N_WaterPump,              !- Tuesday ScheduleDay Name
    N_WaterPump,              !- Wednesday ScheduleDay Name
    N_WaterPump,              !- Thursday ScheduleDay Name
    N_WaterPump,              !- Friday ScheduleDay Name
    N_WaterPump,              !- Saturday ScheduleDay Name
    N_WaterPump,              !- Holiday ScheduleDay Name
    N_WaterPump,              !- SummerDesignDay ScheduleDay Name
    N_WaterPump,              !- WinterDesignDay ScheduleDay Name
    N_WaterPump,              !- CustomDay1 ScheduleDay Name
    N_WaterPump;              !- CustomDay2 ScheduleDay Name

Schedule:Week:Daily,
    W_ControlEquipment,       !- Name
    N_ControlEquipment,       !- Sunday ScheduleDay Name
    N_ControlEquipment,       !- Monday ScheduleDay Name
    N_ControlEquipment,       !- Tuesday ScheduleDay Name
    N_ControlEquipment,       !- Wednesday ScheduleDay Name
    N_ControlEquipment,       !- Thursday ScheduleDay Name
    N_ControlEquipment,       !- Friday ScheduleDay Name
    N_ControlEquipment,       !- Saturday ScheduleDay Name
    N_ControlEquipment,       !- Holiday ScheduleDay Name
    N_ControlEquipment,       !- SummerDesignDay ScheduleDay Name
    N_ControlEquipment,       !- WinterDesignDay ScheduleDay Name
    N_ControlEquipment,       !- CustomDay1 ScheduleDay Name
    N_ControlEquipment;       !- CustomDay2 ScheduleDay Name

Schedule:Week:Daily,
    W_LightFan,               !- Name
    N_LightFan,               !- Sunday ScheduleDay Name
    N_LightFan,               !- Monday ScheduleDay Name
    N_LightFan,               !- Tuesday ScheduleDay Name
    N_LightFan,               !- Wednesday ScheduleDay Name
    N_LightFan,               !- Thursday ScheduleDay Name
    N_LightFan,               !- Friday ScheduleDay Name
    N_LightFan,               !- Saturday ScheduleDay Name
    N_LightFan,               !- Holiday ScheduleDay Name
    N_LightFan,               !- SummerDesignDay ScheduleDay Name
    N_LightFan,               !- WinterDesignDay ScheduleDay Name
    N_LightFan,               !- CustomDay1 ScheduleDay Name
    N_LightFan;               !- CustomDay2 ScheduleDay Name

Schedule:Week:Daily,
    W_FFU,                    !- Name
    N_FFU,                    !- Sunday ScheduleDay Name
    N_FFU,                    !- Monday ScheduleDay Name
    N_FFU,                    !- Tuesday ScheduleDay Name
    N_FFU,                    !- Wednesday ScheduleDay Name
    N_FFU,                    !- Thursday ScheduleDay Name
    N_FFU,                    !- Friday ScheduleDay Name
    N_FFU,                    !- Saturday ScheduleDay Name
    N_FFU,                    !- Holiday ScheduleDay Name
    N_FFU,                    !- SummerDesignDay ScheduleDay Name
    N_FFU,                    !- WinterDesignDay ScheduleDay Name
    N_FFU,                    !- CustomDay1 ScheduleDay Name
    N_FFU;                    !- CustomDay2 ScheduleDay Name

Schedule:Week:Daily,
    W_FreshAirMachine,        !- Name
    N_FreshAirMachine,        !- Sunday ScheduleDay Name
    N_FreshAirMachine,        !- Monday ScheduleDay Name
    N_FreshAirMachine,        !- Tuesday ScheduleDay Name
    N_FreshAirMachine,        !- Wednesday ScheduleDay Name
    N_FreshAirMachine,        !- Thursday ScheduleDay Name
    N_FreshAirMachine,        !- Friday ScheduleDay Name
    N_FreshAirMachine,        !- Saturday ScheduleDay Name
    N_FreshAirMachine,        !- Holiday ScheduleDay Name
    N_FreshAirMachine,        !- SummerDesignDay ScheduleDay Name
    N_FreshAirMachine,        !- WinterDesignDay ScheduleDay Name
    N_FreshAirMachine,        !- CustomDay1 ScheduleDay Name
    N_FreshAirMachine;        !- CustomDay2 ScheduleDay Name

Schedule:Week:Daily,
    W_Always_Off,             !- Name
    Always Off,               !- Sunday ScheduleDay Name
    Always Off,               !- Monday ScheduleDay Name
    Always Off,               !- Tuesday ScheduleDay Name
    Always Off,               !- Wednesday ScheduleDay Name
    Always Off,               !- Thursday ScheduleDay Name
    Always Off,               !- Friday ScheduleDay Name
    Always Off,               !- Saturday ScheduleDay Name
    Always Off,               !- Holiday ScheduleDay Name
    Always Off,               !- SummerDesignDay ScheduleDay Name
    Always Off,               !- WinterDesignDay ScheduleDay Name
    Always Off,               !- CustomDay1 ScheduleDay Name
    Always Off;               !- CustomDay2 ScheduleDay Name

Schedule:Year,
    G_Lights,                 !- Name
    Fraction,                 !- Schedule Type Limits Name
    W_Always_Off,             !- ScheduleWeek Name 1
    1,                        !- Start Month 1
    1,                        !- Start Day 1
    12,                       !- End Month 1
    31;                       !- End Day 1

Schedule:Year,
    G_WaterPump,              !- Name
    Fraction,                 !- Schedule Type Limits Name
    W_Always_Off,             !- ScheduleWeek Name 1
    1,                        !- Start Month 1
    1,                        !- Start Day 1
    12,                       !- End Month 1
    31;                       !- End Day 1

Schedule:Year,
    G_ControlEquipment,       !- Name
    Fraction,                 !- Schedule Type Limits Name
    W_Always_Off,             !- ScheduleWeek Name 1
    1,                        !- Start Month 1
    1,                        !- Start Day 1
    12,                       !- End Month 1
    31;                       !- End Day 1

Schedule:Year,
    G_LightFan,               !- Name
    Fraction,                 !- Schedule Type Limits Name
    W_Always_Off,             !- ScheduleWeek Name 1
    1,                        !- Start Month 1
    1,                        !- Start Day 1
    12,                       !- End Month 1
    31;                       !- End Day 1

Schedule:Year,
    G_FFU,                    !- Name
    Fraction,                 !- Schedule Type Limits Name
    W_Always_Off,             !- ScheduleWeek Name 1
    1,                        !- Start Month 1
    1,                        !- Start Day 1
    12,                       !- End Month 1
    31;                       !- End Day 1

Schedule:Year,
    G_FreshAirMachine,        !- Name
    Fraction,                 !- Schedule Type Limits Name
    W_Always_Off,             !- ScheduleWeek Name 1
    1,                        !- Start Month 1
    1,                        !- Start Day 1
    12,                       !- End Month 1
    31;                       !- End Day 1

Schedule:Year,
    Always Off Schedule,      !- Name
    Fraction,                 !- Schedule Type Limits Name
    W_Always_Off,             !- ScheduleWeek Name 1
    1,                        !- Start Month 1
    1,                        !- Start Day 1
    12,                       !- End Month 1
    31;                       !- End Day 1

Schedule:Constant,
    On,                       !- Name
    On/Off,                   !- Schedule Type Limits Name
    1;                        !- Hourly Value

Schedule:Constant,
    Cooling Setpoit,          !- Name
    Temperature,              !- Schedule Type Limits Name
    22;                       !- Hourly Value

Schedule:Constant,
    UNZ_0ZoneControlTypeSched,    !- Name
    Any Number,               !- Schedule Type Limits Name
    4;                        !- Hourly Value

Schedule:Constant,
    Off,                      !- Name
    On/Off,                   !- Schedule Type Limits Name
    0;                        !- Hourly Value

Schedule:Constant,
    Heating Setpoint,         !- Name
    Temperature,              !- Schedule Type Limits Name
    16;                       !- Hourly Value

Schedule:File,
    Flow rate schedule,       !- Name
    Fraction,                 !- Schedule Type Limits Name
    g:\PVBES_Design\idfs\ventilationSchedule.txt,    !- File Name
    1,                        !- Column Number
    0,                        !- Rows to Skip at Top
    8760,                     !- Number of Hours of Data
    Comma,                    !- Column Separator
    No,                       !- Interpolate to Timestep
    60,                       !- Minutes per Item
    Yes;                      !- Adjust Schedule for Daylight Savings

Material,
    WhitePaint_0.0016_FF_SideWalls,    !- Name
    Rough,                    !- Roughness
    0.0016,                   !- Thickness
    177,                      !- Conductivity
    2770,                     !- Density
    875,                      !- Specific Heat
    0.9,                      !- Thermal Absorptance
    0.2,                      !- Solar Absorptance
    0.2;                      !- Visible Absorptance

Material,
    Stainless Steel_0.0015_FF_SideWalls,    !- Name
    Rough,                    !- Roughness
    0.0015,                   !- Thickness
    45,                       !- Conductivity
    7800,                     !- Density
    480,                      !- Specific Heat
    0.9,                      !- Thermal Absorptance
    0.5,                      !- Solar Absorptance
    0.5;                      !- Visible Absorptance

Material,
    PolyurethaneFoam_0.05_FF_SideWalls,    !- Name
    Rough,                    !- Roughness
    0.05,                     !- Thickness
    0.1,                      !- Conductivity
    55,                       !- Density
    750,                      !- Specific Heat
    0.9,                      !- Thermal Absorptance
    0.7,                      !- Solar Absorptance
    0.7;                      !- Visible Absorptance

Material,
    Plywood,                  !- Name
    Smooth,                   !- Roughness
    0.018,                    !- Thickness
    0.17,                     !- Conductivity
    600,                      !- Density
    400,                      !- Specific Heat
    0.9,                      !- Thermal Absorptance
    0.7,                      !- Solar Absorptance
    0.7;                      !- Visible Absorptance

Material,
    PVC,                      !- Name
    Smooth,                   !- Roughness
    0.003,                    !- Thickness
    0.16,                     !- Conductivity
    1400,                     !- Density
    400,                      !- Specific Heat
    0.9,                      !- Thermal Absorptance
    0.7,                      !- Solar Absorptance
    0.7;                      !- Visible Absorptance

Material,
    Stainless Steel_0.003_FF_SideWalls,    !- Name
    Rough,                    !- Roughness
    0.003,                    !- Thickness
    45,                       !- Conductivity
    7800,                     !- Density
    480,                      !- Specific Heat
    0.9,                      !- Thermal Absorptance
    0.5,                      !- Solar Absorptance
    0.5;                      !- Visible Absorptance

Construction,
    PFWALLwithPaint,          !- Name
    WhitePaint_0.0016_FF_SideWalls,    !- Outside Layer
    PolyurethaneFoam_0.05_FF_SideWalls,    !- Layer 2
    Stainless Steel_0.0015_FF_SideWalls;    !- Layer 3

Construction,